New England/MatPower Cases/Easy/Winter12Generous.m
% Case saved by PowerWorld Simulator, version 19, build date July 14, 2016
function mpc = Winter12
mpc.version = '2';
mpc.baseMVA =  100.00;

%% bus data 
mpc.bus = [
      1 2      0.00     0.00      0.00     0.00    1 1.0318752   -20.99025  345.00   1   1.100   0.980    26.51     0.00 0  0
      2 1     97.25    28.43      0.00     0.00    1 1.0285310   -21.22134  345.00   1   1.060   0.920    26.51    -0.00 0  0
      3 2      0.00     0.00      0.00     0.00    1 1.0200000   -11.03335  138.00   1   1.100   0.980    26.35     0.00 0  0
      4 1     67.20    18.85      0.00     0.00    1 0.9883408   -22.04737  138.00   1   1.060   0.920    26.51    -0.00 0  0
      5 1     75.87    24.24      0.00     0.00    1 0.9921885   -19.67702  230.00   1   1.060   0.920    26.51    -0.00 0  0
      6 1     69.21    19.95      0.00     0.00    1 1.0142884    -9.93189  138.00   1   1.060   0.920    26.50     0.00 0  0
      7 2    113.78    35.70      0.00     0.00    1 1.0200000   -19.05005  138.00   1   1.100   0.980    26.51     0.00 0  0
      8 2     96.03    29.11      0.00     0.00    1 1.0200000   -17.37029  230.00   1   1.100   0.980    26.51     0.00 0  0
      9 1      0.00     0.00      0.00     0.00    1 1.0311021   -18.66269  345.00   1   1.060   0.920    26.51    -0.00 0  0
     10 3     70.76    23.33      0.00     0.00    1 1.0200000     0.00000  138.00   1   1.100   0.980    26.50     0.00 0  0
     11 1      0.00     0.00      0.00     0.00    1 1.0176561    -1.01586  138.00   1   1.060   0.920    26.50    -0.00 0  0
     12 1      2.11     0.61      0.00     0.00    1 1.0172476    -1.82904  138.00   1   1.060   0.920    26.50    -0.00 0  0
     13 1      0.00     0.00      0.00     0.00    1 1.0178802    -3.93317  345.00   1   1.060   0.920    26.50    -0.00 0  0
     14 1     93.52    25.34      0.00     0.00    1 1.0182436   -10.46753  230.00   1   1.060   0.920    26.50    -0.00 0  0
     15 1    114.09    32.02      0.00     0.00    1 1.0109642   -14.17067  230.00   1   1.060   0.920    26.50     0.00 0  0
     16 1    133.13    36.43      0.00     0.00    1 1.0081578   -17.05569  138.00   1   1.060   0.920    26.50    -0.00 0  0
     17 1     68.52    21.85      0.00     0.00    1 0.9906936   -19.32040  138.00   1   1.060   0.920    26.48     0.00 0  0
     18 1     79.08    21.90      0.00     0.00    1 0.9883536   -18.61896  138.00   1   1.060   0.920    26.41     0.02 0  0
     19 1     82.35    25.52      0.00     0.00    1 0.9981281   -16.98332  138.00   1   1.060   0.920    26.50    -0.00 0  0
     20 1     79.91    22.81      0.00     0.00    1 1.0053778   -14.51860   69.00   1   1.060   0.920    26.50    -0.00 0  0
     21 1    116.09    30.65      0.00     0.00    1 0.9909052   -19.76187  138.00   1   1.060   0.920    26.50    -0.00 0  0
     22 1    103.58    28.40      0.00     0.00    1 1.0018210    -7.10027  230.00   1   1.060   0.920    26.50    -0.00 0  0
     23 1     76.82    23.37      0.00     0.00    1 1.0032980    -9.04392  230.00   1   1.060   0.920    26.50    -0.00 0  0
     24 2     90.53    28.61      0.00     0.00    1 1.0200000   -11.87541  230.00   1   1.100   0.980    26.50     0.00 0  0
     25 1     67.20    21.49      0.00     0.00    1 1.0098920   -21.18120  230.00   1   1.060   0.920    26.51    -0.00 0  0
     26 2     80.65    20.76      0.00     0.00    1 1.0200000   -30.61099  345.00   1   1.100   0.980    26.51     0.00 0  0
     27 1     78.75    25.74      0.00     0.00    1 0.9987640   -28.53930  230.00   1   1.060   0.920    26.50     0.00 0  0
     28 2    120.63    34.29      0.00     0.00    1 1.0200000   -24.74506  138.00   1   1.100   0.980    26.50     0.00 0  0
     29 1     71.93    24.82      0.00     0.00    1 1.0163562   -22.71125  138.00   1   1.060   0.920    26.50     0.00 0  0
     30 2      0.00     0.00      0.00     0.00    1 1.0200000   -19.70468   14.00   1   1.100   0.980    26.51     0.00 0  0
     31 2      0.00     0.00      0.00     0.00    1 1.0200000    -5.83333   14.00   1   1.100   0.980    26.50     0.00 0  0
     32 2      0.00     0.00      0.00     0.00    1 1.0200000     2.20389   14.00   1   1.100   0.980    26.50     0.00 0  0
     33 2    108.24    22.83      0.00     0.00    1 1.0200000   -14.18840   14.00   1   1.100   0.980    26.50     0.00 0  0
     34 2     64.77    19.90      0.00     0.00    1 1.0200000   -11.56563   14.00   1   1.100   0.980    26.50     0.00 0  0
     35 2      0.00     0.00      0.00     0.00    1 1.0200000     2.03081   14.00   1   1.100   0.980    26.50     0.00 0  0
     36 2      0.00     0.00      0.00     0.00    1 1.0200000    -6.44420   14.00   1   1.100   0.980    26.50     0.00 0  0
     37 2      0.00     0.00      0.00     0.00    1 1.0200000   -19.61161   14.00   1   1.100   0.980    26.51     0.00 0  0
     38 2      0.00     0.00      0.00     0.00    1 1.0200000   -20.51669   14.00   1   1.100   0.980    26.50     0.00 0  0
     39 1     75.10    24.63      0.00     0.00    1 1.0205485   -28.02088  345.00   1   1.060   0.920    26.51    -0.00 0  0
     40 1     76.21    21.76      0.00     0.00    1 1.0121542   -31.81810  345.00   1   1.060   0.920    26.51    -0.00 0  0
     41 1    101.64    26.92      0.00     0.00    1 1.0022149   -28.05352  345.00   1   1.060   0.920    26.50     0.00 0  0
     42 1    113.84    28.11      0.00     0.00    1 1.0223810   -33.38200  345.00   1   1.060   0.920    26.50    -0.00 0  0
     43 1    102.11    34.49      0.00     0.00    1 1.0172005   -30.85587  345.00   1   1.060   0.920    26.51    -0.00 0  0
     44 1     65.37    21.82      0.00     0.00    1 1.0108573   -20.52572  230.00   1   1.060   0.920    26.51    -0.00 0  0
     45 1     96.62    26.23      0.00     0.00    1 1.0166630   -20.29793  345.00   1   1.060   0.920    26.51    -0.00 0  0
     46 1     86.44    27.56      0.00     0.00    1 0.9739734   -22.11708  138.00   1   1.060   0.920    26.51    -0.00 0  0
     47 1     77.23    25.79      0.00     0.00    1 0.9426002   -25.09133  138.00   1   1.060   0.920    26.51    -0.00 0  0
     48 1     93.82    29.28      0.00     0.00    1 0.9884497   -22.50012  345.00   1   1.060   0.920    26.51    -0.00 0  0
     49 2     59.04    21.67      0.00     0.00    1 1.0200000   -16.84345  138.00   1   1.100   0.980    26.51     0.00 0  0
     50 1     90.76    29.26      0.00     0.00    1 0.9912900   -21.27906  138.00   1   1.060   0.920    26.51    -0.00 0  0
     51 1     75.73    24.34      0.00     0.00    1 1.0117937   -24.87236  138.00   1   1.060   0.920    26.51    -0.00 0  0
     52 2     98.42    26.47      0.00     0.00    1 1.0200000   -20.08207  345.00   1   1.100   0.980    26.51     0.00 0  0
     53 1    146.49    45.30      0.00     0.00    1 0.9950715   -24.03928  138.00   1   1.060   0.920    26.51    -0.00 0  0
     54 2     62.89    24.96      0.00     0.00    1 1.0200000   -16.83004  230.00   1   1.100   0.980    26.51     0.00 0  0
     55 1     93.44    30.95      0.00     0.00    1 1.0095362   -19.89224  230.00   1   1.060   0.920    26.51    -0.00 0  0
     56 2    104.86    29.70      0.00     0.00    1 1.0200000   -10.41938  345.00   1   1.100   0.980    26.50     0.00 0  0
     57 1     54.47    19.65      0.00     0.00    1 0.9668558   -23.79389  138.00   1   1.060   0.920    26.51    -0.00 0  0
     58 1    120.60    31.73      0.00     0.00    1 1.0056087   -11.34490  345.00   1   1.060   0.920    26.50    -0.00 0  0
     59 1     73.33    23.68      0.00     0.00    1 1.0153633   -13.41419  345.00   1   1.060   0.920    26.50     0.00 0  0
     60 1     83.76    28.06      0.00     0.00    1 0.9659306   -22.02070  138.00   1   1.060   0.920    26.50    -0.00 0  0
     61 1    100.61    27.79      0.00     0.00    1 1.0149138   -15.77774  230.00   1   1.060   0.920    26.50     0.00 0  0
     62 1     93.67    24.90      0.00     0.00    1 1.0007896   -12.11452  345.00   1   1.060   0.920    26.50    -0.00 0  0
     63 1     71.31    25.92      0.00     0.00    1 0.9591136   -23.53140  138.00   1   1.060   0.920    26.51    -0.00 0  0
     64 1    155.40    47.57      0.00     0.00    1 0.9779798   -17.16088  138.00   1   1.060   0.920    26.50    -0.00 0  0
     65 1     61.14    21.72      0.00     0.00    1 1.0017821   -19.69788  138.00   1   1.060   0.920    26.51    -0.00 0  0
     66 1     71.15    26.32      0.00     0.00    1 1.0079957   -11.12605  345.00   1   1.060   0.920    26.50    -0.00 0  0
     67 1     85.03    23.00      0.00     0.00    1 0.9943988   -24.87415  138.00   1   1.060   0.920    26.51    -0.00 0  0
     68 1    103.00    30.37      0.00     0.00    1 1.0031240   -23.61663  138.00   1   1.060   0.920    26.51    -0.00 0  0
     69 2     56.38    19.85      0.00     0.00    1 1.0200000    -4.03776  345.00   1   1.100   0.980    26.50     0.00 0  0
     70 1     80.46    23.99      0.00     0.00    1 1.0125692    -5.94746  138.00   1   1.060   0.920    26.50     0.00 0  0
     71 1     62.44    20.60      0.00     0.00    1 1.0126015   -10.59614  345.00   1   1.060   0.920    26.50    -0.00 0  0
     72 2     55.14    19.34      0.00     0.00    1 1.0157602   -24.81562  138.00   1   1.100   0.980    26.51     0.00 0  0
     73 1     67.13    20.52      0.00     0.00    1 1.0122120   -24.87975  138.00   1   1.060   0.920    26.51    -0.00 0  0
     74 1     73.68    24.20      0.00     0.00    1 1.0005931   -20.34274  345.00   1   1.060   0.920    26.51    -0.00 0  0
     75 1     78.65    24.62      0.00     0.00    1 0.9804135   -22.38586  138.00   1   1.060   0.920    26.51    -0.00 0  0
     76 2    106.95    23.09      0.00     0.00    1 1.0200000    -9.67790  345.00   1   1.100   0.980    26.50     0.00 0  0
     77 1     72.07    18.95      0.00     0.00    1 0.9983185   -28.20570  138.00   1   1.060   0.920    26.50     0.00 0  0
     78 2     89.55    24.44      0.00     0.00    1 1.0200000   -34.22251  345.00   1   1.100   0.980    26.50     0.00 0  0
     79 1    123.39    39.73      0.00     0.00    1 1.0422669   -41.26748  345.00   1   1.060   0.920    26.50    -0.00 0  0
     80 2     96.95    27.75      0.00     0.00    1 1.0200000   -36.99573  345.00   1   1.100   0.980    26.50     0.00 0  0
     81 1    105.13    27.36      0.00     0.00    1 1.0177282   -35.26830  345.00   1   1.060   0.920    26.50     0.00 0  0
     82 2     72.01    20.03      0.00     0.00    1 1.0200000   -29.90080  345.00   1   1.100   0.980    26.50     0.00 0  0
     83 1     75.44    24.49      0.00     0.00    1 1.0226916   -28.89398  345.00   1   1.060   0.920    26.50     0.00 0  0
     84 2     56.61    19.87      0.00     0.00    1 1.0200000   -25.82733  138.00   1   1.100   0.980    26.50     0.00 0  0
     85 1     62.97    22.61      0.00     0.00    1 0.9992778   -27.56617  230.00   1   1.060   0.920    26.50     0.00 0  0
     86 1    100.53    28.57      0.00     0.00    1 0.9923480   -26.94035  138.00   1   1.060   0.920    26.50     0.00 0  0
     87 1    114.62    27.80      0.00     0.00    1 1.0490995   -41.40194  345.00   1   1.060   0.920    26.50    -0.00 0  0
     88 1     90.01    28.55      0.00     0.00    1 1.0127259   -25.76072  138.00   1   1.060   0.920    26.50     0.00 0  0
     89 1     70.18    24.85      0.00     0.00    1 0.9597421   -32.16305  138.00   1   1.060   0.920    26.50     0.00 0  0
     90 1     63.29    22.16      0.00     0.00    1 0.9946727    -9.70324  230.00   1   1.060   0.920    26.50    -0.00 0  0
     91 1     77.40    18.77      0.00     0.00    1 0.9845938   -11.38166  230.00   1   1.060   0.920    26.50    -0.00 0  0
     92 1     72.43    22.65      0.00     0.00    1 0.9925980   -11.68916  345.00   1   1.060   0.920    26.50    -0.00 0  0
     93 1     82.14    22.47      0.00     0.00    1 0.9946084   -12.91548  345.00   1   1.060   0.920    26.50    -0.00 0  0
     94 1    102.24    28.78      0.00     0.00    1 0.9981162   -18.70933  138.00   1   1.060   0.920    26.50    -0.00 0  0
     95 1     92.44    23.45      0.00     0.00    1 0.9895375   -18.17670  138.00   1   1.060   0.920    26.50    -0.00 0  0
     96 1    106.23    30.00      0.00     0.00    1 0.9898001   -17.75168  138.00   1   1.060   0.920    26.50    -0.00 0  0
     97 1    104.82    24.61      0.00     0.00    1 1.0011489   -15.14244  345.00   1   1.060   0.920    26.50    -0.00 0  0
     98 1    108.83    25.41      0.00     0.00    1 1.0167724   -15.37412  345.00   1   1.060   0.920    26.50     0.00 0  0
     99 1    104.16    27.10      0.00     0.00    1 0.9945207   -16.62657  345.00   1   1.060   0.920    26.50    -0.00 0  0
    100 1     80.69    22.49      0.00     0.00    1 0.9889646    -8.75373  138.00   1   1.060   0.920    26.50    -0.00 0  0
    101 1     76.31    24.62      0.00     0.00    1 0.9920026   -13.25394  345.00   1   1.060   0.920    26.50    -0.00 0  0
    102 1     50.39    18.93      0.00     0.00    1 0.9883492   -19.31296  138.00   1   1.060   0.920    26.50    -0.00 0  0
    103 2    121.41    39.84      0.00     0.00    1 1.0200000   -16.83970  138.00   1   1.100   0.980    26.50     0.00 0  0
    104 1     87.90    25.31      0.00     0.00    1 0.9815292   -19.68326  138.00   1   1.060   0.920    26.50    -0.00 0  0
    105 1     65.51    17.41      0.00     0.00    1 0.9907411   -18.33992  138.00   1   1.060   0.920    26.50    -0.00 0  0
    106 1     65.51    20.84      0.00     0.00    1 0.9857840   -20.47313  138.00   1   1.060   0.920    26.50    -0.00 0  0
    107 1     76.89    18.70      0.00     0.00    1 0.9864387   -19.98359  138.00   1   1.060   0.920    26.50    -0.00 0  0
    108 1    127.45    34.01      0.00     0.00    1 0.9838164   -19.78453  230.00   1   1.060   0.920    26.50    -0.00 0  0
    109 1     94.74    30.19      0.00     0.00    1 0.9886574   -21.82993  138.00   1   1.060   0.920    26.50    -0.00 0  0
    110 1     51.42    15.78      0.00     0.00    1 0.9917237   -17.64334  138.00   1   1.060   0.920    26.50    -0.00 0  0
    111 1     91.57    28.52      0.00     0.00    1 0.9952283   -17.89768  345.00   1   1.060   0.920    26.50    -0.00 0  0
    112 1    123.74    32.14      0.00     0.00    1 0.9712037   -22.21340  138.00   1   1.060   0.920    26.50    -0.00 0  0
    113 1     50.02    15.86      0.00     0.00    1 0.9626682   -23.04581  138.00   1   1.060   0.920    26.50    -0.00 0  0
    114 1     52.31    19.67      0.00     0.00    1 0.9873591   -19.07629  138.00   1   1.060   0.920    26.50    -0.00 0  0
    115 1     58.96    18.88      0.00     0.00    1 0.9956786   -11.25864  345.00   1   1.060   0.920    26.50    -0.00 0  0
    116 1    111.27    26.74      0.00     0.00    1 1.0085407   -19.86442  230.00   1   1.060   0.920    26.50     0.00 0  0
    117 1     84.42    23.92      0.00     0.00    1 0.9978753   -20.57891  138.00   1   1.060   0.920    26.50    -0.00 0  0
    118 1     51.42    18.33      0.00     0.00    1 0.9900116   -18.85041  138.00   1   1.060   0.920    26.50    -0.00 0  0
    119 1    105.66    29.50      0.00     0.00    1 0.9874247   -19.60794  138.00   1   1.060   0.920    26.50    -0.00 0  0
    120 2     65.45    20.27      0.00     0.00    1 1.0200000   -19.76125  230.00   1   1.100   0.980    26.50     0.00 0  0
    121 1     79.45    23.76      0.00     0.00    1 1.0156028   -20.19946  230.00   1   1.060   0.920    26.50    -0.00 0  0
    122 1     65.44    19.92      0.00     0.00    1 0.9855624   -22.06001  138.00   1   1.060   0.920    26.50    -0.00 0  0
    123 1     96.07    24.56      0.00     0.00    1 1.0097841   -19.14338  230.00   1   1.060   0.920    26.50     0.00 0  0
    124 1     97.59    26.15      0.00     0.00    1 0.9814279   -23.17067  230.00   1   1.060   0.920    26.50    -0.00 0  0
    125 1    101.75    26.78      0.00     0.00    1 0.9843080   -21.19094  138.00   1   1.060   0.920    26.50    -0.00 0  0
    126 1     84.69    20.95      0.00     0.00    1 0.9933135   -22.25678  230.00   1   1.060   0.920    26.50    -0.00 0  0
    127 1     97.76    24.88      0.00     0.00    1 0.9881243   -22.87136  230.00   1   1.060   0.920    26.50    -0.00 0  0
    128 2    106.15    30.01      0.00     0.00    1 1.0200000   -14.16023  138.00   1   1.100   0.980    26.49     0.00 0  0
    129 1     80.05    25.10      0.00     0.00    1 0.9792412   -21.24605  138.00   1   1.060   0.920    26.50    -0.00 0  0
    130 2     86.22    26.40      0.00     0.00    1 1.0200000   -16.59203  138.00   1   1.100   0.980    26.50     0.00 0  0
    131 1    117.82    29.54      0.00     0.00    1 0.9737252   -22.21000  138.00   1   1.060   0.920    26.50    -0.00 0  0
    132 1    109.15    24.71      0.00     0.00    1 0.9946646   -20.79825  230.00   1   1.060   0.920    26.50    -0.00 0  0
    133 1     70.15    19.36      0.00     0.00    1 0.9939692   -21.72936  230.00   1   1.060   0.920    26.51    -0.00 0  0
    134 1     83.07    21.11      0.00     0.00    1 0.9900425   -20.69515  230.00   1   1.060   0.920    26.50    -0.00 0  0
    135 1     61.20    19.59      0.00     0.00    1 1.0090671   -17.81722  345.00   1   1.060   0.920    26.50    -0.00 0  0
    136 1     75.31    21.37      0.00     0.00    1 0.9845335   -19.32619  138.00   1   1.060   0.920    26.50    -0.00 0  0
    137 1     60.39    18.10      0.00     0.00    1 1.0157111   -16.86644  345.00   1   1.060   0.920    26.50    -0.00 0  0
    138 1    103.66    27.72      0.00     0.00    1 0.9935867   -17.06800  345.00   1   1.060   0.920    26.50    -0.00 0  0
    139 1     89.39    23.96      0.00     0.00    1 1.0224293   -22.32626  345.00   1   1.060   0.920    26.51    -0.00 0  0
    140 1    118.04    26.03      0.00     0.00    1 0.9986947    -7.42444  138.00   1   1.060   0.920    26.50    -0.00 0  0
    141 2    106.75    29.31      0.00     0.00    1 1.0200000    -3.90103  345.00   1   1.100   0.980    26.50     0.00 0  0
    142 1     70.84    21.53      0.00     0.00    1 0.9847256   -22.66448  230.00   1   1.060   0.920    26.50    -0.00 0  0
    143 2    101.59    29.42      0.00     0.00    1 1.0200000   -16.10743  230.00   1   1.100   0.980    26.50     0.00 0  0
    144 1    120.61    28.72      0.00     0.00    1 1.0124801   -17.30667  230.00   1   1.060   0.920    26.50    -0.00 0  0
    145 1     93.72    27.18      0.00     0.00    1 0.9942812   -17.76280  138.00   1   1.060   0.920    26.49     0.00 0  0
    146 2    100.20    23.46      0.00     0.00    1 1.0200000   -16.20867  345.00   1   1.100   0.980    26.50     0.00 0  0
    147 1     62.95    20.09      0.00     0.00    1 0.9832633   -20.12169  138.00   1   1.060   0.920    26.50    -0.00 0  0
    148 1     73.15    22.41      0.00     0.00    1 0.9952878   -12.40544  345.00   1   1.060   0.920    26.50    -0.00 0  0
    149 2    124.02    32.07      0.00     0.00    1 1.0200000   -15.61225  138.00   1   1.100   0.980    26.50     0.00 0  0
    150 1     88.97    25.56      0.00     0.00    1 0.9812283   -23.75292  345.00   1   1.060   0.920    26.51    -0.00 0  0
    151 1     75.12    24.41      0.00     0.00    1 1.0170778   -16.68227  345.00   1   1.060   0.920    26.50    -0.00 0  0
    152 1     60.98    21.05      0.00     0.00    1 0.9687378   -22.32730  138.00   1   1.060   0.920    26.50    -0.00 0  0
    153 1     70.48    25.31      0.00     0.00    1 1.0059693   -18.24120  345.00   1   1.060   0.920    26.50    -0.00 0  0
    154 1     86.75    26.59      0.00     0.00    1 0.9938315   -27.00304  230.00   1   1.060   0.920    26.50     0.00 0  0
    155 1     84.76    26.30      0.00     0.00    1 0.9752967   -27.25959  138.00   1   1.060   0.920    26.50     0.00 0  0
    156 1     87.34    26.46      0.00     0.00    1 1.0082064   -21.47077  345.00   1   1.060   0.920    26.50     0.00 0  0
    157 2     86.72    26.40      0.00     0.00    1 1.0200000   -19.11495  138.00   1   1.100   0.980    26.50     0.00 0  0
    158 1     86.78    25.20      0.00     0.00    1 0.9905204   -23.54107  138.00   1   1.060   0.920    26.50    -0.00 0  0
    159 1     90.15    24.35      0.00     0.00    1 1.0084132   -25.27507  345.00   1   1.060   0.920    26.50     0.00 0  0
    160 1    110.67    30.92      0.00     0.00    1 0.9812796   -29.54221  230.00   1   1.060   0.920    26.50     0.00 0  0
    161 1     56.36    18.23      0.00     0.00    1 0.9971134   -23.69834  138.00   1   1.060   0.920    26.50     0.00 0  0
    162 2     81.65    24.22      0.00     0.00    1 1.0200000   -17.06059  345.00   1   1.100   0.980    26.50     0.00 0  0
    163 1    104.48    26.13      0.00     0.00    1 1.0083945   -21.35984  230.00   1   1.060   0.920    26.50     0.00 0  0
    164 1     77.74    24.02      0.00     0.00    1 0.9878966   -22.07839  138.00   1   1.060   0.920    26.50     0.00 0  0
    165 2     83.75    24.99      0.00     0.00    1 1.0200000   -14.29447  230.00   1   1.100   0.980    26.50     0.00 0  0
    166 2     78.14    21.92      0.00     0.00    1 1.0200000   -19.65425  138.00   1   1.100   0.980    26.50     0.00 0  0
    167 1     78.08    25.10      0.00     0.00    1 1.0262415   -32.99751  345.00   1   1.060   0.920    26.50    -0.00 0  0
    168 1     51.32    16.96      0.00     0.00    1 0.9941841   -22.36815  230.00   1   1.060   0.920    26.51    -0.00 0  0
    169 1     82.29    23.13      0.00     0.00    1 0.9969971   -23.58799  138.00   1   1.060   0.920    26.50     0.00 0  0
    170 1     87.03    22.64      0.00     0.00    1 0.9670841   -10.67605  138.00   1   1.060   0.920    26.50    -0.00 0  0
    171 1     75.21    21.97      0.00     0.00    1 0.9738424   -10.24833  138.00   1   1.060   0.920    26.50    -0.00 0  0
    172 1     87.79    26.49      0.00     0.00    1 0.9865280    -7.85329  138.00   1   1.060   0.920    26.50    -0.00 0  0
    173 1     77.27    25.38      0.00     0.00    1 0.9838296    -7.42994  138.00   1   1.060   0.920    26.50    -0.00 0  0
    174 1     93.88    27.18      0.00     0.00    1 1.0148997   -11.94935  345.00   1   1.060   0.920    26.50    -0.00 0  0
    175 2     75.36    24.22      0.00     0.00    1 1.0200000   -11.39562  138.00   1   1.100   0.980    26.50     0.00 0  0
    176 2     92.24    27.23      0.00     0.00    1 1.0200000   -16.09345  345.00   1   1.100   0.980    26.50     0.00 0  0
    177 1    131.78    40.46      0.00     0.00    1 1.0123280   -12.92208  230.00   1   1.060   0.920    26.50    -0.00 0  0
    178 1     69.63    19.95      0.00     0.00    1 0.9994784   -15.80486  138.00   1   1.060   0.920    26.50    -0.00 0  0
    179 1      6.53     2.02      0.00     0.00    1 0.9986563   -15.86250  138.00   1   1.060   0.920    26.50    -0.00 0  0
    180 1      9.75     2.57      0.00     0.00    1 1.0149473   -11.99848  345.00   1   1.060   0.920    26.50    -0.00 0  0
    181 1      0.00     0.00      0.00     0.00    1 1.0318647   -15.63940  345.00   1   1.060   0.920    26.52    -0.02 0  0
    182 1      0.00     0.00      0.00     0.00    1 1.0019088   -20.04011  345.00   1   1.060   0.920    26.51    -0.00 0  0
    183 1      0.00     0.00      0.00     0.00    1 1.0095226   -19.99374  345.00   1   1.060   0.920    26.51    -0.00 0  0
    184 1      0.00     0.00      0.00     0.00    1 1.0162631   -11.61473  230.00   1   1.060   0.920    26.50     0.00 0  0
    185 1      0.00     0.00      0.00     0.00    1 1.0120716    -9.88574  345.00   1   1.060   0.920    26.50    -0.00 0  0
    186 1      0.00     0.00      0.00     0.00    1 1.0125161   -20.44388  345.00   1   1.060   0.920    26.51    -0.00 0  0
    187 1      0.00     0.00      0.00     0.00    1 1.0209073   -18.58018  345.00   1   1.060   0.920    26.51    -0.00 0  0
    188 1      0.00     0.00      0.00     0.00    1 1.0181824    -3.41399  345.00   1   1.060   0.920    26.50    -0.00 0  0
    189 1      0.00     0.00      0.00     0.00    1 1.0179586    -3.97345  345.00   1   1.060   0.920    26.50    -0.00 0  0
    190 1      0.00     0.00      0.00     0.00    1 1.0176980    -9.01755  345.00   1   1.060   0.920    26.50    -0.00 0  0
    191 1      0.00     0.00      0.00     0.00    1 1.0182801   -12.65242  345.00   1   1.060   0.920    26.50     0.00 0  0
    192 1      0.00     0.00      0.00     0.00    1 1.0132745   -16.53380  230.00   1   1.060   0.920    26.50     0.00 0  0
    193 1      0.00     0.00      0.00     0.00    1 1.0167773   -15.66612  345.00   1   1.060   0.920    26.50     0.00 0  0
    194 1      0.00     0.00      0.00     0.00    1 1.0147194   -17.49940  345.00   1   1.060   0.920    26.50     0.00 0  0
    195 1      0.00     0.00      0.00     0.00    1 0.9914261   -18.65657  230.00   1   1.060   0.920    26.50    -0.00 0  0
    196 1      0.00     0.00      0.00     0.00    1 0.9950503   -17.14475  345.00   1   1.060   0.920    26.50    -0.00 0  0
    197 1      0.00     0.00      0.00     0.00    1 0.9963331   -19.31078  230.00   1   1.060   0.920    26.50    -0.00 0  0
    198 1      0.00     0.00      0.00     0.00    1 0.9964901   -16.95598  345.00   1   1.060   0.920    26.50    -0.00 0  0
    199 1      0.00     0.00      0.00     0.00    1 0.9993803   -10.70984  345.00   1   1.060   0.920    26.50    -0.00 0  0
    200 1      0.00     0.00      0.00     0.00    1 1.0148796   -13.42467  345.00   1   1.060   0.920    26.50    -0.00 0  0
...
];

%% generator data 
mpc.gen = [
      1      3.68   -103.00    103.00   -103.00  1.0200    100.00 1    338.00      3.00     81.31   9999.90   -500.00   1500.00   -500.00   1500.00 0 0 0 0   0.0000 0 0 0 0
      3    365.73    -16.09    392.00   -209.00  1.0200    100.00 1    686.00    298.00      0.00      0.00      0.00      0.00      0.00      0.00 0 0 0 0   0.0000 0 0 0 0
      7    170.59    128.87    385.00   -205.00  1.0200    100.00 1    674.00    139.00      0.00      0.00      0.00      0.00      0.00      0.00 0 0 0 0   0.0000 0 0 0 0
      8    231.96     92.18    349.00   -186.00  1.0200    100.00 1    611.00    189.00      0.00      0.00      0.00      0.00      0.00      0.00 0 0 0 0   0.0000 0 0 0 0
     10   1896.68    119.75   1298.00   -692.00  1.0200    100.00 1   2271.00   1406.00      0.00      0.00      0.00      0.00      0.00      0.00 0 0 0 0   0.0000 0 0 0 0
     24    353.46    114.40    309.00   -165.00  1.0200    100.00 1    541.00    288.00      0.00      0.00      0.00      0.00      0.00      0.00 0 0 0 0   0.0000 0 0 0 0
     26    147.27     -1.20    171.00    -91.00  1.0200    100.00 1    300.00    120.00      0.00      0.00      0.00      0.00      0.00      0.00 0 0 0 0   0.0000 0 0 0 0
     28    265.09     67.63    338.00   -180.00  1.0200    100.00 1    592.00    216.00      0.00      0.00      0.00      0.00      0.00      0.00 0 0 0 0   0.0000 0 0 0 0
     30    153.41    -46.05    150.00    -80.00  1.0200    100.00 1    263.00    125.00      0.00      0.00      0.00      0.00      0.00      0.00 0 0 0 0   0.0000 0 0 0 0
     31    295.77     33.89    457.00   -244.00  1.0200    100.00 1    800.00    241.00      0.00      0.00      0.00      0.00      0.00      0.00 0 0 0 0   0.0000 0 0 0 0
     32    200.05      3.85    390.00   -208.00  1.0200    100.00 1    683.00    163.00      0.00      0.00      0.00      0.00      0.00      0.00 0 0 0 0   0.0000 0 0 0 0
     33    465.14    170.87    379.00   -202.00  1.0200    100.00 1    664.00    379.00      0.00      0.00      0.00      0.00      0.00      0.00 0 0 0 0   0.0000 0 0 0 0
     34    362.05     95.46    707.00   -377.00  1.0200    100.00 1   1237.00    295.00      0.00      0.00      0.00      0.00      0.00      0.00 0 0 0 0   0.0000 0 0 0 0
     35   1134.00    220.21    792.00   -422.00  1.0200    100.00 1   1386.00    924.00      0.00      0.00      0.00      0.00      0.00      0.00 0 0 0 0   0.0000 0 0 0 0
     36    171.82     63.35    336.00   -179.00  1.0200    100.00 1    588.00    140.00      0.00      0.00      0.00      0.00      0.00      0.00 0 0 0 0   0.0000 0 0 0 0
     37    122.73     42.93    324.00   -173.00  1.0200    100.00 1    567.00    100.00      0.00      0.00      0.00      0.00      0.00      0.00 0 0 0 0   0.0000 0 0 0 0
     38    255.27     15.61    498.00   -266.00  1.0200    100.00 1    872.00    208.00      0.00      0.00      0.00      0.00      0.00      0.00 0 0 0 0   0.0000 0 0 0 0
     49    392.73     90.59    347.00   -185.00  1.0200    100.00 1    607.00    320.00      0.00      0.00      0.00      0.00      0.00      0.00 0 0 0 0   0.0000 0 0 0 0
     52    198.82    134.08    938.00   -500.00  1.0200    100.00 1   1642.00    162.00      0.00      0.00      0.00      0.00      0.00      0.00 0 0 0 0   0.0000 0 0 0 0
     54    255.27     12.88    312.00   -166.00  1.0200    100.00 1    546.00    208.00      0.00      0.00      0.00      0.00      0.00      0.00 0 0 0 0   0.0000 0 0 0 0
     56    510.55    124.73    416.00   -222.00  1.0200    100.00 1    728.00    416.00      0.00      0.00      0.00      0.00      0.00      0.00 0 0 0 0   0.0000 0 0 0 0
     69    182.86     92.53    297.00   -158.00  1.0200    100.00 1    520.00    149.00      0.00      0.00      0.00      0.00      0.00      0.00 0 0 0 0   0.0000 0 0 0 0
     72    104.32    150.00    150.00    -80.00  1.0200    100.00 1    263.00     85.00      0.00      0.00      0.00      0.00      0.00      0.00 0 0 0 0   0.0000 0 0 0 0
     76    533.87    127.79    504.00   -269.00  1.0200    100.00 1    882.00    435.00      0.00      0.00      0.00      0.00      0.00      0.00 0 0 0 0   0.0000 0 0 0 0
     78    159.55    -79.49    165.00    -88.00  1.0200    100.00 1    288.00    130.00      0.00      0.00      0.00      0.00      0.00      0.00 0 0 0 0   0.0000 0 0 0 0
     80    138.68    -78.17    330.00   -176.00  1.0200    100.00 1    578.00    113.00      0.00      0.00      0.00      0.00      0.00      0.00 0 0 0 0   0.0000 0 0 0 0
     82    216.00    -41.78    179.00    -95.00  1.0200    100.00 1    313.00    176.00      0.00      0.00      0.00      0.00      0.00      0.00 0 0 0 0   0.0000 0 0 0 0
     84    207.41     23.50    508.00   -271.00  1.0200    100.00 1    888.00    169.00      0.00      0.00      0.00      0.00      0.00      0.00 0 0 0 0   0.0000 0 0 0 0
    103    255.27    183.78    523.00   -279.00  1.0200    100.00 1    916.00    208.00      0.00      0.00      0.00      0.00      0.00      0.00 0 0 0 0   0.0000 0 0 0 0
    120    197.59    296.56    483.00   -258.00  1.0200    100.00 1    845.00    161.00      0.00      0.00      0.00      0.00      0.00      0.00 0 0 0 0   0.0000 0 0 0 0
    128    220.91     24.88    216.00   -115.00  1.0200    100.00 1    378.00    180.00      0.00      0.00      0.00      0.00      0.00      0.00 0 0 0 0   0.0000 0 0 0 0
    130    141.14     82.93    153.00    -81.00  1.0200    100.00 1    267.00    115.00      0.00      0.00      0.00      0.00      0.00      0.00 0 0 0 0   0.0000 0 0 0 0
    141   1076.32    208.20    967.00   -515.00  1.0200    100.00 1   1691.00    877.00      0.00      0.00      0.00      0.00      0.00      0.00 0 0 0 0   0.0000 0 0 0 0
    143    190.23     91.87    173.00    -92.00  1.0200    100.00 1    303.00    155.00      0.00      0.00      0.00      0.00      0.00      0.00 0 0 0 0   0.0000 0 0 0 0
    146    368.18    230.12    347.00   -185.00  1.0200    100.00 1    607.00    300.00      0.00      0.00      0.00      0.00      0.00      0.00 0 0 0 0   0.0000 0 0 0 0
    149    228.27     48.55    157.00    -83.00  1.0200    100.00 1    274.00    186.00      0.00      0.00      0.00      0.00      0.00      0.00 0 0 0 0   0.0000 0 0 0 0
    157    353.46     57.04    298.00   -159.00  1.0200    100.00 1    521.00    288.00      0.00      0.00      0.00      0.00      0.00      0.00 0 0 0 0   0.0000 0 0 0 0
    162    282.27     71.63    363.00   -194.00  1.0200    100.00 1    636.00    230.00      0.00      0.00      0.00      0.00      0.00      0.00 0 0 0 0   0.0000 0 0 0 0
    165    959.73     63.80    745.00   -397.00  1.0200    100.00 1   1304.00    782.00      0.00      0.00      0.00      0.00      0.00      0.00 0 0 0 0   0.0000 0 0 0 0
    166    339.96    103.81    474.00   -253.00  1.0200    100.00 1    830.00    277.00      0.00      0.00      0.00      0.00      0.00      0.00 0 0 0 0   0.0000 0 0 0 0
    175    256.50     38.95    358.00   -191.00  1.0200    100.00 1    626.00    209.00      0.00      0.00      0.00      0.00      0.00      0.00 0 0 0 0   0.0000 0 0 0 0
    176    105.55     18.28    153.00    -81.00  1.0200    100.00 1    267.00     86.00      0.00      0.00      0.00      0.00      0.00      0.00 0 0 0 0   0.0000 0 0 0 0
];

%% generator cost data
mpc.gencost = [
2 0 0 4   0.0000    0.001   17.500   450.00
2 0 0 4   0.0000    0.001   24.757  1505.67
2 0 0 4   0.0000    0.002   24.400  3342.77
2 0 0 4   0.0000    0.005   30.562  1114.42
2 0 0 4   0.0000    0.001   25.697  6313.07
2 0 0 4   0.0000    0.002   27.100  1297.89
2 0 0 4   0.0000    0.005   27.249   783.88
2 0 0 4   0.0000    0.002   26.174  1372.76
2 0 0 4   0.0000    0.006   26.053   655.13
2 0 0 4   0.0000    0.002   29.298  3418.85
2 0 0 4   0.0000    0.002   29.135  1458.22
2 0 0 4   0.0000    0.001   23.899  4734.80
2 0 0 4   0.0000    0.004   29.960  3677.05
2 0 0 4   0.0000    0.001   26.605  6691.85
2 0 0 4   0.0000    0.002   26.400  3342.77
2 0 0 4   0.0000    0.004   52.785  7415.02
2 0 0 4   0.0000    0.003   27.114  3844.19
2 0 0 4   0.0000    0.002   25.878  1390.96
2 0 0 4   0.0000    0.003   21.871  2841.36
2 0 0 4   0.0000    0.002   26.558  1284.25
2 0 0 4   0.0000    0.001   24.540  1581.44
2 0 0 4   0.0000    0.002   25.780  3523.95
2 0 0 4   0.0000    0.003   22.330  2325.41
2 0 0 4   0.0000    0.001   25.323  1978.07
2 0 0 4   0.0000    0.005   26.473   732.25
2 0 0 4   0.0000    0.002   26.356  1347.98
2 0 0 4   0.0000    0.008   27.364   550.89
2 0 0 4   0.0000    0.004   31.864  3610.20
2 0 0 4   0.0000    0.001   25.117  2036.75
2 0 0 4   0.0000    0.004   32.314  3777.33
2 0 0 4   0.0000    0.004   26.167   947.57
2 0 0 4   0.0000    0.006   27.791   710.04
2 0 0 4   0.0000    0.003   27.697  4313.07
2 0 0 4   0.0000    0.005   26.616   773.70
2 0 0 4   0.0000    0.002   26.010  1398.04
2 0 0 4   0.0000    0.006   27.475   721.30
2 0 0 4   0.0000    0.006   32.756  1215.71
2 0 0 4   0.0000    0.002   25.916  1460.47
2 0 0 4   0.0000    0.001   26.918  6534.03
2 0 0 4   0.0000    0.001   25.325  1860.51
2 0 0 4   0.0000    0.002   25.962  1438.95
2 0 0 4   0.0000    0.006   27.924   713.43
];

%% branch data
mpc.branch = [
      1       2  0.005978  0.120624   1.98515    414.51    414.51    414.51 1.00000    0.000 1    0.00    0.00      3.68   -103.00     -3.68   -107.66 0 0 0 0
      2      30  0.000000  0.018100   0.00000   1000.00   1000.00   1000.00 1.00000    0.000 1    0.00    0.00   -153.41     50.51    153.41    -46.05 0 0 0 0
      2      39  0.008680  0.060198   0.52937    530.03    530.03    530.03 1.00000    0.000 1    0.00    0.00    205.90    -31.79   -202.42      0.35 0 0 0 0
      2     139  0.003390  0.023178   0.20974    530.03    530.03    530.03 1.00000    0.000 1    0.00    0.00     89.66      3.72    -89.39    -23.96 0 0 0 0
      2     181  0.007607  0.052755   0.46393    530.03    530.03    530.03 1.00000    0.000 1    0.00    0.00   -191.27      6.08    193.97    -36.61 0 0 0 0
      2     201  0.002742  0.018748   0.16965    530.03    530.03    530.03 1.00000    0.000 1    0.00    0.00    -44.45     50.71     44.59    -67.51 0 0 0 0
      3      18  0.003829  0.158129   0.09685    316.20    316.20    316.20 1.00000    0.000 1    0.00    0.00     84.74     18.90    -84.45    -16.89 0 0 0 0
      3     181  0.000638  0.030000   0.00000    400.00    400.00    400.00 1.00000    0.000 1    0.00    0.00    280.99    -34.99   -280.50     58.11 0 0 0 0
      4      75  0.016845  0.038117   0.00951    107.32    107.32    107.32 1.00000    0.000 1    0.00    0.00     20.18     11.22    -20.09    -11.93 0 0 0 0
      4     182  0.000889  0.040000   0.00000    300.00    300.00    300.00 1.00000    0.000 1    0.00    0.00    -87.38    -30.06     87.46     33.56 0 0 0 0
      5       8  0.002959  0.039331   0.08406    578.83    578.83    578.83 1.00000    0.000 1    0.00    0.00   -108.08    -64.08    108.54     61.67 0 0 0 0
      5     183  0.001261  0.046667   0.00000    150.00    150.00    150.00 1.00000    0.000 1    0.00    0.00     10.86    -37.12    -10.84     37.82 0 0 0 0
      5     184  0.045023  0.111012   0.17939    178.87    178.87    178.87 1.00000    0.000 1    0.00    0.00   -113.76     24.77    120.20    -26.99 0 0 0 0
      5     207  0.001124  0.013276   0.03027    541.39    541.39    541.39 1.00000    0.000 1    0.00    0.00    135.10     52.18   -134.86    -52.29 0 0 0 0
      6       7  0.062002  0.145750   0.03365    107.32    107.32    107.32 1.00000    0.000 1    0.00    0.00     97.05    -38.02    -90.58     49.75 0 0 0 0
      6      31  0.000000  0.025000   0.00000   1100.00   1100.00   1100.00 1.00000    0.000 1    0.00    0.00   -295.77    -12.59    295.77     33.89 0 0 0 0
      6      70  0.033638  0.077688   0.01859    107.32    107.32    107.32 1.00000    0.000 1    0.00    0.00    -75.37     37.12     77.70    -33.64 0 0 0 0
      6     184  0.000297  0.014545   0.00000    550.00    550.00    550.00 1.00000    0.000 1    0.00    0.00    207.81    -14.95   -207.68     21.09 0 0 0 0
      6     185  0.000556  0.026667   0.00000    450.00    450.00    450.00 1.00000    0.000 1    0.00    0.00     -2.92      8.49      2.92     -8.47 0 0 0 0
      7     186  0.000336  0.017143   0.00000    700.00    700.00    700.00 1.00000    0.000 1    0.00    0.00    147.39     43.42   -147.32    -39.53 0 0 0 0
      8      54  0.000326  0.005080   0.01216    665.28    665.28    665.28 1.00000    0.000 1    0.00    0.00   -192.27     12.63    192.39    -12.08 0 0 0 0
      8     187  0.000196  0.010000   0.00000    700.00    700.00    700.00 1.00000    0.000 1    0.00    0.00    219.65    -11.24   -219.56     15.89 0 0 0 0
    187       9  0.006838  0.047422   0.41703    530.03    530.03    530.03 1.00000    0.000 1    0.00    0.00      0.03    -43.68      0.00      0.00 0 0 0 0
     10      11  0.000315  0.008557   0.00495    566.01    566.01    566.01 1.00000    0.000 1    0.00    0.00    215.87     21.63   -215.73    -18.27 0 0 0 0
     10      32  0.000000  0.020000   0.00000   1000.00   1000.00   1000.00 1.00000    0.000 1    0.00    0.00   -200.05      3.85    200.05      3.85 0 0 0 0
     10      70  0.005799  0.067267   0.02063    324.83    324.83    324.83 1.00000    0.000 1    0.00    0.00    159.59      4.70   -158.17      9.66 0 0 0 0
     10     188  0.000073  0.003750   0.00000   3200.00   3200.00   3200.00 1.00000    0.000 1    0.00    0.00   1650.51     66.24  -1648.58     32.11 0 0 0 0
     12      11  0.001279  0.043500   0.00000    100.00    100.00    100.00 1.00000    0.000 1    0.00    0.00    -33.77      0.28     33.78      0.20 0 0 0 0
     11     173  0.016673  0.124076   0.03486    237.35    237.35    237.35 1.00000    0.000 1    0.00    0.00     92.87     18.51    -91.42    -11.17 0 0 0 0
     11     189  0.001500  0.060000   0.00000    200.00    200.00    200.00 1.00000    0.000 1    0.00    0.00     89.07     -0.44    -88.96      5.04 0 0 0 0
     12      13  0.003529  0.120000   0.00000    100.00    100.00    100.00 1.00000    0.000 1    0.00    0.00     31.65     -0.89    -31.62      2.05 0 0 0 0
    188      13  0.000109  0.001949   0.02003   1045.73   1045.73   1045.73 1.00000    0.000 1    0.00    0.00    481.25     -9.96   -481.01     12.25 0 0 0 0
     13     190  0.000846  0.017908   0.26779   1060.07   1060.07   1060.07 1.00000    0.000 1    0.00    0.00    512.63    -14.29   -510.48     31.97 0 0 0 0
     14      15  0.036111  0.089040   0.14388    178.87    178.87    178.87 1.00000    0.000 1    0.00    0.00     67.86    -24.24    -66.16     13.63 0 0 0 0
     14     177  0.018818  0.067761   0.11459    229.46    229.46    229.46 1.00000    0.000 1    0.00    0.00     63.14    -13.19    -62.40      4.02 0 0 0 0
     14     190  0.000233  0.011667   0.00000    600.00    600.00    600.00 1.00000    0.000 1    0.00    0.00   -224.52     12.10    224.63     -6.41 0 0 0 0
     15      61  0.004135  0.027504   0.05200    353.36    353.36    353.36 1.00000    0.000 1    0.00    0.00    100.39    -30.80    -99.95     28.39 0 0 0 0
    184      15  0.003431  0.042042   0.08894    541.39    541.39    541.39 1.00000    0.000 1    0.00    0.00    109.49      1.71   -109.10     -5.95 0 0 0 0
     15     191  0.002059  0.070000   0.00000    100.00    100.00    100.00 1.00000    0.000 1    0.00    0.00    -39.23     -8.90     39.26     10.00 0 0 0 0
     16     149  0.014227  0.046950   0.01231    137.68    137.68    137.68 1.00000    0.000 1    0.00    0.00    -57.40     -7.97     57.87      8.25 0 0 0 0
     16     192  0.001000  0.040000   0.00000    200.00    200.00    200.00 1.00000    0.000 1    0.00    0.00    -23.57    -12.20     23.57     12.48 0 0 0 0
     16     193  0.001116  0.048000   0.00000    250.00    250.00    250.00 1.00000    0.000 1    0.00    0.00    -52.17    -16.26     52.20     17.67 0 0 0 0
     17      18  0.056699  0.194499   0.04709    137.68    137.68    137.68 1.00000    0.000 1    0.00    0.00     -5.35      0.48      5.37     -5.02 0 0 0 0
     17     145  0.046728  0.104525   0.02669    107.32    107.32    107.32 1.00000    0.000 1    0.00    0.00    -22.49      5.69     22.75     -7.73 0 0 0 0
     17     194  0.002162  0.080000   0.00000    150.00    150.00    150.00 1.00000    0.000 1    0.00    0.00    -40.69    -28.02     40.74     30.01 0 0 0 0
     19      20  0.000426  0.020000   0.00000    400.00    400.00    400.00 1.00000    0.000 1    0.00    0.00   -216.35    -26.94    216.55     36.48 0 0 0 0
     19      33  0.000700  0.014200   0.00000   1000.00   1000.00   1000.00 1.00000    0.000 1    0.00    0.00   -355.89   -127.67    356.90    148.04 0 0 0 0
     19      96  0.055097  0.129519   0.02990    107.32    107.32    107.32 1.00000    0.000 1    0.00    0.00     11.00      0.32    -10.93     -3.11 0 0 0 0
     19     105  0.000528  0.012761   0.00724    522.03    522.03    522.03 1.00000    0.000 1    0.00    0.00    185.62     51.90   -185.43    -47.86 0 0 0 0
     19     110  0.005086  0.023707   0.00609    173.53    173.53    173.53 1.00000    0.000 1    0.00    0.00     51.57     15.87    -51.42    -15.78 0 0 0 0
     19     118  0.000642  0.013449   0.00755    474.70    474.70    474.70 1.00000    0.000 1    0.00    0.00    241.90     52.22   -241.51    -44.69 0 0 0 0
     19     175  0.056202  0.251624   0.07017    173.53    173.53    173.53 1.00000    0.000 1    0.00    0.00    -38.96     -1.55     39.82     -1.76 0 0 0 0
     19     195  0.002353  0.080000   0.00000    100.00    100.00    100.00 1.00000    0.000 1    0.00    0.00     36.35      7.82    -36.32     -6.71 0 0 0 0
     19     196  0.003529  0.120000   0.00000    100.00    100.00    100.00 1.00000    0.000 1    0.00    0.00      2.41      2.49     -2.40     -2.48 0 0 0 0
     20      34  0.000900  0.018000   0.00000    600.00    600.00    600.00 1.00000    0.000 1    0.00    0.00   -296.46    -59.28    297.27     75.56 0 0 0 0
     21     129  0.006980  0.035005   0.01005    187.39    187.39    187.39 1.00000    0.000 1    0.00    0.00     75.56     18.39    -75.13    -17.20 0 0 0 0
     21     130  0.007383  0.060698   0.01884    261.01    261.01    261.01 1.00000    0.000 1    0.00    0.00    -96.12    -34.18     96.90     38.67 0 0 0 0
     21     197  0.001441  0.053333   0.00000    150.00    150.00    150.00 1.00000    0.000 1    0.00    0.00    -14.83     -9.63     14.84      9.80 0 0 0 0
     21     198  0.001500  0.060000   0.00000    200.00    200.00    200.00 1.00000    0.000 1    0.00    0.00    -80.69     -5.23     80.79      9.23 0 0 0 0
     22      23  0.013985  0.034482   0.05572    178.87    178.87    178.87 1.00000    0.000 1    0.00    0.00     83.99    -39.47    -82.82     36.76 0 0 0 0
     22      35  0.000000  0.014300   0.00000   1950.00   1950.00   1950.00 1.00000    0.000 1    0.00    0.00  -1134.00    -36.80   1134.00    220.21 0 0 0 0
     22     199  0.000131  0.006667   0.00000   1050.00   1050.00   1050.00 1.00000    0.000 1    0.00    0.00    946.43     47.87   -945.26     11.78 0 0 0 0
     23      24  0.043009  0.106048   0.17137    178.87    178.87    178.87 1.00000    0.000 1    0.00    0.00     35.84    -37.79    -34.93     22.49 0 0 0 0
     23      36  0.000500  0.027200   0.00000   1000.00   1000.00   1000.00 1.00000    0.000 1    0.00    0.00   -171.66    -54.58    171.82     63.35 0 0 0 0
     23      90  0.006901  0.020365   0.03648    206.75    206.75    206.75 1.00000    0.000 1    0.00    0.00     63.59     19.43    -63.29    -22.16 0 0 0 0
     23      91  0.012793  0.054395   0.09557    262.53    262.53    262.53 1.00000    0.000 1    0.00    0.00     78.22     12.80    -77.40    -18.77 0 0 0 0
     24     177  0.002078  0.014281   0.02528    353.36    353.36    353.36 1.00000    0.000 1    0.00    0.00    137.32     34.70   -136.92    -34.55 0 0 0 0
     24     200  0.000372  0.017500   0.00000    400.00    400.00    400.00 1.00000    0.000 1    0.00    0.00    160.54     28.59   -160.44    -24.12 0 0 0 0
     25      37  0.000600  0.023200   0.00000   1000.00   1000.00   1000.00 1.00000    0.000 1    0.00    0.00   -122.63    -39.16    122.73     42.93 0 0 0 0
     25     133  0.006133  0.048676   0.09258    395.58    395.58    395.58 1.00000    0.000 1    0.00    0.00     23.53     25.44    -23.44    -34.04 0 0 0 0
     25     168  0.018164  0.045274   0.07160    178.87    178.87    178.87 1.00000    0.000 1    0.00    0.00     51.84     11.06    -51.32    -16.96 0 0 0 0
     25     201  0.001261  0.046667   0.00000    150.00    150.00    150.00 1.00000    0.000 1    0.00    0.00    -19.94    -18.83     19.95     19.18 0 0 0 0
     26      42  0.007136  0.049490   0.43522    530.03    530.03    530.03 1.00000    0.000 1    0.00    0.00     99.45    -39.42    -98.75     -1.12 0 0 0 0
     26      43  0.001333  0.009112   0.08245    530.03    530.03    530.03 1.00000    0.000 1    0.00    0.00     52.15     19.53    -52.11    -27.79 0 0 0 0
     26     202  0.010447  0.072454   0.63716    530.03    530.03    530.03 1.00000    0.000 1    0.00    0.00    -84.98     -2.06     85.80    -57.79 0 0 0 0
     27     160  0.022175  0.054676   0.08835    178.87    178.87    178.87 1.00000    0.000 1    0.00    0.00     38.16     12.33    -37.78    -20.04 0 0 0 0
     27     202  0.000519  0.023333   0.00000    300.00    300.00    300.00 1.00000    0.000 1    0.00    0.00   -116.92    -38.06    116.99     41.60 0 0 0 0
     28      77  0.066564  0.156472   0.03612    107.32    107.32    107.32 1.00000    0.000 1    0.00    0.00     38.78     -3.06    -37.82      1.64 0 0 0 0
     28      88  0.001156  0.018601   0.00608    418.29    418.29    418.29 1.00000    0.000 1    0.00    0.00    100.58     34.19   -100.46    -32.80 0 0 0 0
     28     203  0.005926  0.160000   0.00000     50.00     50.00     50.00 1.00000    0.000 1    0.00    0.00      2.89      2.70     -2.89     -2.68 0 0 0 0
     28     204  0.003529  0.120000   0.00000    100.00    100.00    100.00 1.00000    0.000 1    0.00    0.00      2.22     -0.50     -2.22      0.51 0 0 0 0
     29      38  0.000800  0.015600   0.00000   1200.00   1200.00   1200.00 1.00000    0.000 1    0.00    0.00   -254.77     -5.80    255.27     15.61 0 0 0 0
     29      84  0.009549  0.091679   0.02681    283.00    283.00    283.00 1.00000    0.000 1    0.00    0.00     60.56    -10.06    -60.22     10.60 0 0 0 0
     29     205  0.000209  0.010667   0.00000    750.00    750.00    750.00 1.00000    0.000 1    0.00    0.00    122.27     -8.96   -122.24     10.51 0 0 0 0
     39      43  0.005771  0.040026   0.35199    530.03    530.03    530.03 1.00000    0.000 1    0.00    0.00    127.32    -24.98   -126.42     -5.32 0 0 0 0
     40      43  0.003602  0.023140   0.23770    530.03    530.03    530.03 1.00000    0.000 1    0.00    0.00    -76.21    -21.76     76.42     -1.38 0 0 0 0
    202      41  0.002711  0.018804   0.16536    530.03    530.03    530.03 1.00000    0.000 1    0.00    0.00    101.93     12.20   -101.64    -26.92 0 0 0 0
     42     167  0.006872  0.049342   0.40438    530.03    530.03    530.03 1.00000    0.000 1    0.00    0.00    -15.08    -26.98     15.10    -15.32 0 0 0 0
     44      55  0.007424  0.027027   0.04470    229.46    229.46    229.46 1.00000    0.000 1    0.00    0.00    -37.50     13.19     37.62    -17.31 0 0 0 0
     44     206  0.000372  0.017500   0.00000    400.00    400.00    400.00 1.00000    0.000 1    0.00    0.00    -27.88    -35.01     27.88     35.36 0 0 0 0
     45      52  0.000887  0.008362   0.07659    652.53    652.53    652.53 1.00000    0.000 1    0.00    0.00    -50.44    -39.09     50.48     31.45 0 0 0 0
    206      45  0.000420  0.002856   0.02611    530.03    530.03    530.03 1.00000    0.000 1    0.00    0.00     24.66      8.18    -24.65    -10.86 0 0 0 0
     45     212  0.001035  0.009761   0.08940    652.53    652.53    652.53 1.00000    0.000 1    0.00    0.00    -21.52     23.72     21.54    -32.81 0 0 0 0
     46      47  0.016826  0.106284   0.02894    212.01    212.01    212.01 1.00000    0.000 1    0.00    0.00     48.34     20.89    -47.84    -20.37 0 0 0 0
     46     207  0.000370  0.017778   0.00000    450.00    450.00    450.00 1.00000    0.000 1    0.00    0.00   -134.78    -48.44    134.86     52.29 0 0 0 0
     47      63  0.038101  0.089565   0.02068    107.32    107.32    107.32 1.00000    0.000 1    0.00    0.00    -29.39     -5.42     29.77      4.44 0 0 0 0
     48     150  0.003523  0.024436   0.21489    530.03    530.03    530.03 1.00000    0.000 1    0.00    0.00     89.27      6.79    -88.97    -25.56 0 0 0 0
    182      48  0.003417  0.023699   0.20841    530.03    530.03    530.03 1.00000    0.000 1    0.00    0.00    184.29     23.72   -183.10    -36.07 0 0 0 0
     49      65  0.001800  0.037712   0.02118    474.70    474.70    474.70 1.00000    0.000 1    0.00    0.00    137.13     44.99   -136.77    -39.57 0 0 0 0
     49     208  0.001000  0.040000   0.00000    200.00    200.00    200.00 1.00000    0.000 1    0.00    0.00     98.58     10.34    -98.49     -6.57 0 0 0 0
     49     209  0.001500  0.060000   0.00000    200.00    200.00    200.00 1.00000    0.000 1    0.00    0.00     97.97     13.59    -97.83     -7.94 0 0 0 0
     50      65  0.005258  0.037515   0.01148    237.35    237.35    237.35 1.00000    0.000 1    0.00    0.00    -75.31    -16.73     75.62     17.85 0 0 0 0
     50     210  0.003529  0.120000   0.00000    100.00    100.00    100.00 1.00000    0.000 1    0.00    0.00    -15.46    -12.53     15.47     13.02 0 0 0 0
     51      68  0.004060  0.037344   0.01192    283.00    283.00    283.00 1.00000    0.000 1    0.00    0.00    -56.27     29.65     56.43    -29.37 0 0 0 0
     51      72  0.000709  0.007194   0.00234    304.04    304.04    304.04 1.00000    0.000 1    0.00    0.00    -19.46    -53.99     19.48     53.98 0 0 0 0
    183      52  0.002047  0.021637   0.20301    707.51    707.51    707.51 1.00000    0.000 1    0.00    0.00      2.69    -59.48     -2.64     39.09 0 0 0 0
    206      52  0.000643  0.006662   0.06506    707.51    707.51    707.51 1.00000    0.000 1    0.00    0.00    -52.54    -43.53     52.57     37.06 0 0 0 0
     53      57  0.006894  0.059124   0.01683    261.01    261.01    261.01 1.00000    0.000 1    0.00    0.00     -1.41     46.83      1.57    -47.10 0 0 0 0
     53      73  0.003976  0.033438   0.00991    261.01    261.01    261.01 1.00000    0.000 1    0.00    0.00     37.63    -55.65    -37.45     56.16 0 0 0 0
     53     211  0.000369  0.018462   0.00000    650.00    650.00    650.00 1.00000    0.000 1    0.00    0.00   -182.70    -36.49    182.83     42.96 0 0 0 0
     55      61  0.034539  0.120369   0.21762    229.46    229.46    229.46 1.00000    0.000 1    0.00    0.00    -57.04      2.96     58.21    -21.18 0 0 0 0
    208      55  0.006202  0.018912   0.03169    206.75    206.75    206.75 1.00000    0.000 1    0.00    0.00     84.61      4.40    -84.17     -6.33 0 0 0 0
     55     212  0.001261  0.046667   0.00000    150.00    150.00    150.00 1.00000    0.000 1    0.00    0.00     10.16    -10.26    -10.16     10.36 0 0 0 0
    185      56  0.000908  0.009601   0.09009    707.51    707.51    707.51 1.00000    0.000 1    0.00    0.00     91.46    -96.37    -91.31     88.64 0 0 0 0
    191      56  0.000301  0.008151   0.12418   1246.50   1246.50   1246.50 1.00000    0.000 1    0.00    0.00   -496.28      0.08    496.99      6.39 0 0 0 0
     57      60  0.018675  0.042258   0.01054    107.32    107.32    107.32 1.00000    0.000 1    0.00    0.00    -56.04     27.45     56.82    -26.66 0 0 0 0
     58      62  0.002141  0.014851   0.13060    530.03    530.03    530.03 1.00000    0.000 1    0.00    0.00     93.86     13.10    -93.67    -24.90 0 0 0 0
     58      66  0.001447  0.010038   0.08828    530.03    530.03    530.03 1.00000    0.000 1    0.00    0.00    -41.15    -22.37     41.18     13.62 0 0 0 0
    185      58  0.002185  0.015152   0.13324    530.03    530.03    530.03 1.00000    0.000 1    0.00    0.00    173.97     13.44   -173.32    -22.46 0 0 0 0
    191      59  0.000938  0.006385   0.05837    530.03    530.03    530.03 1.00000    0.000 1    0.00    0.00    217.65     12.93   -217.21    -16.04 0 0 0 0
     59     213  0.000907  0.006172   0.05642    530.03    530.03    530.03 1.00000    0.000 1    0.00    0.00    143.88     -7.64   -143.70      3.07 0 0 0 0
     60      63  0.017610  0.040671   0.00973    107.32    107.32    107.32 1.00000    0.000 1    0.00    0.00     56.76     -8.05    -56.15      8.58 0 0 0 0
     60      64  0.005655  0.040347   0.01235    237.35    237.35    237.35 1.00000    0.000 1    0.00    0.00   -197.34      6.65    199.71      9.04 0 0 0 0
     61     143  0.002057  0.016137   0.03143    395.58    395.58    395.58 1.00000    0.000 1    0.00    0.00     32.32    -37.62    -32.28     34.74 0 0 0 0
    192      61  0.004667  0.025655   0.04713    312.32    312.32    312.32 1.00000    0.000 1    0.00    0.00    -52.28      0.96     52.40     -5.13 0 0 0 0
     61     213  0.000519  0.023333   0.00000    300.00    300.00    300.00 1.00000    0.000 1    0.00    0.00   -143.59      7.75    143.70     -3.07 0 0 0 0
     63      75  0.005417  0.046454   0.01323    261.01    261.01    261.01 1.00000    0.000 1    0.00    0.00    -44.94    -38.94     45.14     39.46 0 0 0 0
     64     214  0.000336  0.017143   0.00000    700.00    700.00    700.00 1.00000    0.000 1    0.00    0.00   -355.11    -56.62    355.56     79.79 0 0 0 0
     66      71  0.001271  0.008811   0.07749    530.03    530.03    530.03 1.00000    0.000 1    0.00    0.00   -112.33    -39.94    112.50     33.23 0 0 0 0
     67      68  0.002882  0.026509   0.00846    283.00    283.00    283.00 1.00000    0.000 1    0.00    0.00    -85.03    -23.00     85.26     24.23 0 0 0 0
     68     215  0.000336  0.017143   0.00000    700.00    700.00    700.00 1.00000    0.000 1    0.00    0.00   -244.69    -25.23    244.90     35.54 0 0 0 0
    189      69  0.001131  0.007735   0.06999    530.03    530.03    530.03 1.00000    0.000 1    0.00    0.00     10.91    -32.08    -10.90     24.88 0 0 0 0
     69     247  0.002929  0.020317   0.17866    530.03    530.03    530.03 1.00000    0.000 1    0.00    0.00    137.38     47.80   -136.76    -61.79 0 0 0 0
     71      76  0.001422  0.009863   0.08674    530.03    530.03    530.03 1.00000    0.000 1    0.00    0.00   -174.94    -53.83    175.40     48.05 0 0 0 0
     72      73  0.000275  0.004586   0.00284    424.03    424.03    424.03 1.00000    0.000 1    0.00    0.00     29.70     76.68    -29.69    -76.67 0 0 0 0
    182      74  0.000498  0.003455   0.03038    530.03    530.03    530.03 1.00000    0.000 1    0.00    0.00    155.59     14.60   -155.47    -16.81 0 0 0 0
    210      74  0.001292  0.011415   0.10343    623.25    623.25    623.25 1.00000    0.000 1    0.00    0.00     22.14     50.36    -22.10    -60.38 0 0 0 0
     74     216  0.000640  0.004357   0.03984    530.03    530.03    530.03 1.00000    0.000 1    0.00    0.00    103.89     52.99   -103.80    -56.36 0 0 0 0
     75     216  0.000638  0.030000   0.00000    400.00    400.00    400.00 1.00000    0.000 1    0.00    0.00   -103.71    -52.16    103.80     56.36 0 0 0 0
    190      76  0.001435  0.009955   0.08755    530.03    530.03    530.03 1.00000    0.000 1    0.00    0.00    114.50    -43.88   -114.29     36.20 0 0 0 0
     76     238  0.003386  0.047034   0.46520    868.25    868.25    868.25 1.00000    0.000 1    0.00    0.00    365.81     20.44   -361.39     -6.56 0 0 0 0
     77      84  0.006198  0.069744   0.01841    304.04    304.04    304.04 1.00000    0.000 1    0.00    0.00    -62.74    -25.12     63.02     26.41 0 0 0 0
     77      89  0.016077  0.099621   0.02821    212.01    212.01    212.01 1.00000    0.000 1    0.00    0.00     71.13     28.07    -70.18    -24.85 0 0 0 0
     77     217  0.005926  0.160000   0.00000     50.00     50.00     50.00 1.00000    0.000 1    0.00    0.00    -21.21     -6.24     21.24      7.02 0 0 0 0
     77     218  0.003529  0.120000   0.00000    100.00    100.00    100.00 1.00000    0.000 1    0.00    0.00    -21.43    -17.30     21.46     18.21 0 0 0 0
     78      79  0.014099  0.097781   0.85988    511.35    511.35    511.35 1.00000    0.000 1    0.00    0.00    128.51    -78.28   -126.12      3.42 0 0 0 0
     78     167  0.005724  0.038942   0.35603    530.03    530.03    530.03 1.00000    0.000 1    0.00    0.00    -58.51    -25.65     58.71    -10.31 0 0 0 0
     79      87  0.008106  0.052075   0.53493    530.03    530.03    530.03 1.00000    0.000 1    0.00    0.00      2.73    -43.15     -2.72    -15.24 0 0 0 0
     80      81  0.005975  0.042908   0.35164    530.03    530.03    530.03 1.00000    0.000 1    0.00    0.00    -70.66     -1.95     70.96    -32.38 0 0 0 0
     80      87  0.003558  0.071801   1.18166    696.37    696.37    696.37 1.00000    0.000 1    0.00    0.00    112.39   -103.97   -111.90    -12.56 0 0 0 0
     81      82  0.007764  0.053845   0.47351    530.03    530.03    530.03 1.00000    0.000 1    0.00    0.00   -176.08      5.03    178.47    -37.61 0 0 0 0
     82      83  0.007662  0.053138   0.46730    530.03    530.03    530.03 1.00000    0.000 1    0.00    0.00    -34.48    -24.20     34.57    -23.94 0 0 0 0
     83     219  0.005009  0.034736   0.30546    530.03    530.03    530.03 1.00000    0.000 1    0.00    0.00   -110.01     -0.55    110.60    -27.33 0 0 0 0
     84     219  0.000224  0.011429   0.00000   1050.00   1050.00   1050.00 1.00000    0.000 1    0.00    0.00    148.00    -33.38   -147.95     35.91 0 0 0 0
     85     154  0.017306  0.084819   0.15179    289.22    289.22    289.22 1.00000    0.000 1    0.00    0.00     -9.78      0.89      9.81    -15.82 0 0 0 0
    217      85  0.004299  0.043533   0.08806    471.67    471.67    471.67 1.00000    0.000 1    0.00    0.00     53.33     16.00    -53.19    -23.50 0 0 0 0
     86      88  0.044131  0.145633   0.03817    137.68    137.68    137.68 1.00000    0.000 1    0.00    0.00    -16.82    -10.52     16.99      7.21 0 0 0 0
     86     169  0.025279  0.129580   0.03558    187.39    187.39    187.39 1.00000    0.000 1    0.00    0.00    -43.43      4.47     43.93     -5.45 0 0 0 0
     86     220  0.000744  0.032000   0.00000    250.00    250.00    250.00 1.00000    0.000 1    0.00    0.00    -40.27    -22.52     40.29     23.21 0 0 0 0
...